# WEL package for MODFLOW-2005 generated by Flopy 3.9.2
         1         0 
         1         0 # stress period 1
         1        51        51          -500.0
