# Name file for MODFLOW-2005, generated by Flopy version 3.9.2.
#xll:0.0; yll:0.0; rotation:0.0; units:meters; lenuni:2; start_datetime:1-1-1970
LIST               2  nappe_perte.list
DIS               11  nappe_perte.dis
BAS6              13  nappe_perte.bas
LPF               15  nappe_perte.lpf
RCH               19  nappe_perte.rch
PCG               27  nappe_perte.pcg
OC                14  nappe_perte.oc
DATA(BINARY)      51  nappe_perte.hds REPLACE
